data/pnnl118.m
function mpc = pnnl118
%PNNL118

%% MATPOWER Case Format : Version 2
mpc.version = '2';

%%-----  Power Flow Data  -----%%
%% system MVA base
mpc.baseMVA = 100;

%% bus data
%	bus_i	type	Pd	Qd	Gs	Bs	area	Vm	Va	baseKV	zone	Vmax	Vmin
mpc.bus = [
	1	2	23.746	12.572	0	0	1	1.01505	22.8857	138	1	1.1	0.9;
	2	1	9.312	4.191	0	0	1	1.02139	23.0064	138	1	1.1	0.9;
	3	1	18.159	4.656	0	0	1	1.02196	23.2788	138	1	1.1	0.9;
	4	2	18.159	5.587	0	0	1	1.03783	25.056	138	1	1.1	0.9;
	5	1	0	0	0	-40	1	1.03925	25.2814	138	1	1.1	0.9;
	6	2	24.212	10.243	0	0	1	1.02952	23.9344	138	1	1.1	0.9;
	7	1	8.847	0.931	0	0	1	1.02883	23.66	138	1	1.1	0.9;
	8	2	13.037	0	0	0	1	1.04154	27.8247	345	1	1.1	0.9;
	9	1	0	0	0	0	1	1.05649	31.5585	345	1	1.1	0.9;
	10	2	0	0	0	0	1	1.05	35.5881	345	1	1.1	0.9;
	11	1	32.593	10.709	0	0	1	1.02958	23.7327	138	1	1.1	0.9;
	12	2	21.884	4.656	0	0	1	1.02827	23.3718	138	1	1.1	0.9;
	13	1	15.831	7.45	0	0	1	1.0284	23.1808	138	1	1.1	0.9;
	14	1	6.519	0.466	0	0	1	1.03292	23.1441	138	1	1.1	0.9;
	15	2	41.905	13.968	0	0	1	1.04352	23.3007	138	1	1.1	0.9;
	16	1	11.64	4.656	0	0	1	1.03472	23.3732	138	1	1.1	0.9;
	17	1	5.122	1.397	0	0	1	1.0557	24.4531	138	1	1.1	0.9;
	18	2	27.937	15.831	0	0	1	1.04373	23.5313	138	1	1.1	0.9;
	19	2	20.953	11.64	0	0	1	1.04234	23.2532	138	1	1.1	0.9;
	20	1	8.381	1.397	0	0	1	1.04253	23.6668	138	1	1.1	0.9;
	21	1	6.519	3.725	0	0	1	1.0431	24.3551	138	1	1.1	0.9;
	22	1	4.656	2.328	0	0	1	1.04647	25.457	138	1	1.1	0.9;
	23	1	3.259	1.397	0	0	1	1.05271	27.6544	138	1	1.1	0.9;
	24	2	6.053	0	0	0	1	1.05257	27.1222	138	1	1.1	0.9;
	25	2	0	0	0	0	1	1.05214	31.6162	138	1	1.1	0.9;
	26	2	0	0	0	0	1	1.015	32.5384	345	1	1.1	0.9;
	27	2	33.058	6.053	0	0	1	1.04139	25.4716	138	1	1.1	0.9;
	28	1	7.915	3.259	0	0	1	1.03828	24.691	138	1	1.1	0.9;
	29	1	11.175	1.862	0	0	1	1.03712	24.2132	138	1	1.1	0.9;
	30	1	0	0	0	0	1	1.03045	26.7607	345	1	1.1	0.9;
	31	2	20.021	12.572	0	0	1	1.03771	24.24	138	1	1.1	0.9;
	32	2	27.471	10.709	0	0	1	1.04214	25.0935	138	1	1.1	0.9;
	33	1	10.709	4.191	0	0	1	1.04644	22.9746	138	1	1.1	0.9;
	34	2	27.471	12.106	0	0	1	1.0523	23.1919	138	1	1.1	0.9;
	35	1	15.365	4.191	0	0	1	1.0502	23.0179	138	1	1.1	0.9;
	36	2	14.434	7.915	0	0	1	1.04992	23.0188	138	1	1.1	0.9;
	37	1	0	0	0	-35	1	1.05474	23.3898	138	1	1.1	0.9;
	38	1	0	0	0	0	1	1.01321	25.5718	345	1	1.1	0.9;
	39	1	12.592	5.13	0	0	1	1.03476	22.1136	138	1	1.1	0.9;
	40	2	30.781	10.727	0	0	1	1.02742	21.7486	138	1	1.1	0.9;
	41	1	17.256	4.664	0	0	1	1.02285	21.5756	138	1	1.1	0.9;
	42	2	44.773	10.727	0	0	1	1.02006	22.3247	138	1	1.1	0.9;
	43	1	8.395	3.265	0	0	1	1.05	22.9827	138	1	1.1	0.9;
	44	1	7.462	3.731	0	10	1	1.04598	23.8268	138	1	1.1	0.9;
	45	1	24.718	10.26	0	10	1	1.03613	24.6356	138	1	1.1	0.9;
	46	2	13.059	4.664	0	10	1	1.03583	25.7211	138	1	1.1	0.9;
	47	1	15.857	0	0	0	1	1.0296	27.0662	138	1	1.1	0.9;
	48	1	9.328	5.13	0	15	1	1.03116	26.9463	138	1	1.1	0.9;
	49	2	40.575	13.991	0	0	1	1.025	27.6739	138	1	1.1	0.9;
	50	1	7.929	1.866	0	0	1	1.00722	26.9671	138	1	1.1	0.9;
	51	1	7.929	3.731	0	0	1	0.98248	26.1152	138	1	1.1	0.9;
	52	1	8.395	2.332	0	0	1	0.97536	25.7954	138	1	1.1	0.9;
	53	1	10.727	5.13	0	0	1	0.96057	25.6565	138	1	1.1	0.9;
	54	2	52.701	14.924	0	0	1	0.955	26.3188	138	1	1.1	0.9;
	55	2	29.382	10.26	0	0	1	0.95754	26.0217	138	1	1.1	0.9;
	56	2	39.176	8.395	0	0	1	0.95845	26.1284	138	1	1.1	0.9;
	57	1	5.597	1.399	0	0	1	0.9785	26.285	138	1	1.1	0.9;
	58	1	5.597	1.399	0	0	1	0.97163	25.9755	138	1	1.1	0.9;
	59	2	129.19	52.701	0	0	1	0.985	27.3078	138	1	1.1	0.9;
	60	1	36.378	1.399	0	0	1	0.99511	28.6731	138	1	1.1	0.9;
	61	2	0	0	0	0	1	0.995	29.0717	138	1	1.1	0.9;
	62	2	35.911	6.529	0	0	1	1.00248	28.7251	138	1	1.1	0.9;
	63	1	0	0	0	0	1	0.97211	28.4526	345	1	1.1	0.9;
	64	1	0	0	0	0	1	0.98598	29.0053	345	1	1.1	0.9;
	65	2	0	0	0	0	1	1.005	29.744	345	1	1.1	0.9;
	66	2	18.189	8.395	0	0	1	1.05	30.338	138	1	1.1	0.9;
	67	1	13.059	3.265	0	0	1	1.02616	29.2232	138	1	1.1	0.9;
	68	1	0	0	0	0	1	0.99827	28.6903	345	1	1.1	0.9;
	69	3	0	0	0	0	1	1.035	30	138	1	1.1	0.9;
	70	2	30.781	9.328	0	0	1	1.03244	26.1198	138	1	1.1	0.9;
	71	1	0	0	0	0	1	1.03584	26.0801	138	1	1.1	0.9;
	72	2	5.597	0	0	0	1	1.04711	26.2457	138	1	1.1	0.9;
	73	2	2.798	0	0	0	1	1.03588	26.0094	138	1	1.1	0.9;
	74	2	31.714	12.592	0	12	1	1.02121	24.9947	138	1	1.1	0.9;
	75	1	21.92	5.13	0	0	1	1.02078	25.3681	138	1	1.1	0.9;
	76	2	31.652	16.757	0	0	1	1.00631	23.9414	138	1	1.1	0.9;
	77	2	28.393	13.033	0	0	1	1.02783	24.6669	138	1	1.1	0.9;
	78	1	33.048	12.102	0	0	1	1.02734	24.5069	138	1	1.1	0.9;
	79	1	18.153	14.895	0	20	1	1.03121	24.5991	138	1	1.1	0.9;
	80	2	60.51	12.102	0	0	1	1.04	25.6102	138	1	1.1	0.9;
	81	1	0	0	0	0	1	0.99188	27.5391	345	1	1.1	0.9;
	82	1	25.135	12.568	0	20	1	1.01705	20.1917	138	1	1.1	0.9;
	83	1	9.309	4.655	0	10	1	1.01234	18.7157	138	1	1.1	0.9;
	84	1	5.12	3.258	0	0	1	0.99866	16.7211	138	1	1.1	0.9;
  85	1	11.171	6.982	0	0	1	0.99488	15.9014	138	1	1.1	0.9;
  86	1	9.775	4.655	0	0	1	0.99271	15.1818	138	1	1.1	0.9;
  87	1	0	0	0	0	1	0.99271	15.1824	161	1	1.1	0.9;
  88	1	22.342	4.655	0	0	1	0.99133	14.6488	138	1	1.1	0.9;
  89	1	0	0	0	0	1	0.99385	14.6798	138	1	1.1	0.9;
  90	1	75.871	19.55	0	0	1	0.97843	12.6769	138	1	1.1	0.9;
  91	1	4.655	0	0	0	1	0.98619	13.7119	138	1	1.1	0.9;
  92	1	30.255	4.655	0	0	1	0.99725	15.6617	138	1	1.1	0.9;
	93	1	5.586	3.258	0	0	1	1.00167	17.1642	138	1	1.1	0.9;
	94	1	13.964	7.447	0	0	1	1.00828	18.6635	138	1	1.1	0.9;
	95	1	19.55	14.429	0	0	1	1.0072	19.2366	138	1	1.1	0.9;
	96	1	17.688	6.982	0	0	1	1.01668	20.4282	138	1	1.1	0.9;
	97	1	6.982	4.189	0	0	1	1.02565	22.8138	138	1	1.1	0.9;
	98	1	15.826	3.724	0	0	1	1.02784	22.7396	138	1	1.1	0.9;
	99	2	19.55	0	0	0	1	1.02205	20.5556	138	1	1.1	0.9;
	100	2	17.222	8.378	0	0	1	1.017	19.4337	138	1	1.1	0.9;
	101	1	10.24	6.982	0	0	1	1.00365	17.4157	138	1	1.1	0.9;
	102	1	2.327	1.396	0	0	1	0.99939	16.1946	138	1	1.1	0.9;
	103	2	10.706	7.447	0	0	1	1.01	18.0767	138	1	1.1	0.9;
	104	2	17.688	11.637	0	0	1	1.00325	16.7287	138	1	1.1	0.9;
	105	2	14.429	12.102	0	20	1	1.00336	16.2426	138	1	1.1	0.9;
	106	1	20.015	7.447	0	0	1	1.00255	16.0808	138	1	1.1	0.9;
	107	2	23.273	5.586	0	6	1	1.00125	14.8687	138	1	1.1	0.9;
	108	1	0.931	0.465	0	0	1	0.99544	16.0444	138	1	1.1	0.9;
	109	1	3.724	1.396	0	0	1	0.99207	15.982	138	1	1.1	0.9;
	110	2	18.153	13.964	0	6	1	0.98423	15.981	138	1	1.1	0.9;
	111	2	0	0	0	0	1	0.98	17.265	138	1	1.1	0.9;
	112	2	31.652	6.051	0	0	1	0.97395	14.8161	138	1	1.1	0.9;
	113	2	2.793	0	0	0	1	1.05455	24.4837	138	1	1.1	0.9;
	114	1	3.724	1.396	0	0	1	1.04011	25.0228	138	1	1.1	0.9;
	115	1	10.24	3.258	0	0	1	1.03989	25.0308	138	1	1.1	0.9;
	116	2	85.646	0	0	0	1	0.99797	28.4908	138	1	1.1	0.9;
	117	1	9.309	3.724	0	0	1	1.02267	22.6948	138	1	1.1	0.9;
	118	1	15.36	6.982	0	0	1	1.01131	24.509	138	1	1.1	0.9;
];

%% generator data
%	bus	Pg	Qg	Qmax	Qmin	Vg	mBase	status	Pmax	Pmin	Pc1	Pc2	Qc1min	Qc1max	Qc2min	Qc2max	ramp_agc	ramp_10	ramp_30	ramp_q	apf	mu_Pmax	mu_Pmin	mu_Qmax	mu_Qmin
mpc.gen = [
	1	0	-5	15	-5	0.955	100	1	100	0	0	0	0	0	0	0	0	0	0	0	0	0.0000	0.0000	0.0000	0.0000;
	4	0	0	300	-300	0.998	100	0	100	5	0	0	0	0	0	0	0	0	0	0	0	0.0000	0.0000	0.0000	0.0000;
	6	0	0	50	-13	0.99	100	0	100	5	0	0	0	0	0	0	0	0	0	0	0	0.0000	0.0000	0.0000	0.0000;
	8	0	0	300	-300	1.015	100	0	100	5	0	0	0	0	0	0	0	0	0	0	0	0.0000	0.0000	0.0000	0.0000;
	10	239.54	-75.952	200	-147	1.05	550	1	550	150	0	0	0	0	0	0	0	0	0	0	0	0.0000	0.0000	0.0000	0.0000;
	12	0	0	120	-35	0.99	100	0	185	100	0	0	0	0	0	0	0	0	0	0	0	0.0000	0.0000	0.0000	0.0000;
	15	0	0	30	-10	0.97	100	0	100	10	0	0	0	0	0	0	0	0	0	0	0	0.0000	0.0000	0.0000	0.0000;
	18	0	0	50	-16	0.973	100	0	100	25	0	0	0	0	0	0	0	0	0	0	0	0.0000	0.0000	0.0000	0.0000;
	19	0	0	24	-8	0.962	100	0	100	5	0	0	0	0	0	0	0	0	0	0	0	0.0000	0.0000	0.0000	0.0000;
	24	0	0	300	-300	0.992	100	0	100	5	0	0	0	0	0	0	0	0	0	0	0	0.0000	0.0000	0.0000	0.0000;
	25	117.11	-47	140	-47	1.05	320	1	320	100	0	0	0	0	0	0	0	0	0	0	0	0.0000	0.0000	0.0000	0.0000;
	26	167.14	-55.353	1000	-1000	1.015	414	1	414	100	0	0	0	0	0	0	0	0	0	0	0	0.0000	0.0000	0.0000	0.0000;
	27	0	0	300	-300	0.968	100	0	100	8	0	0	0	0	0	0	0	0	0	0	0	0.0000	0.0000	0.0000	0.0000;
	31	0	0	300	-300	0.967	100	0	107	8	0	0	0	0	0	0	0	0	0	0	0	0.0000	0.0000	0.0000	0.0000;
	32	0	0	42	-14	0.963	100	0	100	25	0	0	0	0	0	0	0	0	0	0	0	0.0000	0.0000	0.0000	0.0000;
	34	0	0	24	-8	0.984	100	0	100	8	0	0	0	0	0	0	0	0	0	0	0	0.0000	0.0000	0.0000	0.0000;
	36	0	0	24	-8	0.98	100	0	100	25	0	0	0	0	0	0	0	0	0	0	0	0.0000	0.0000	0.0000	0.0000;
	40	0	0	300	-300	0.97	100	0	100	8	0	0	0	0	0	0	0	0	0	0	0	0.0000	0.0000	0.0000	0.0000;
	42	0	0	300	-300	0.985	100	0	100	8	0	0	0	0	0	0	0	0	0	0	0	0.0000	0.0000	0.0000	0.0000;
	46	0	0	100	-100	1.005	100	0	119	25	0	0	0	0	0	0	0	0	0	0	0	0.0000	0.0000	0.0000	0.0000;
	49	108.59	-18.168	210	-85	1.025	304	1	304	50	0	0	0	0	0	0	0	0	0	0	0	0.0000	0.0000	0.0000	0.0000;
	54	50	-97.107	300	-300	0.955	148	1	148	50	0	0	0	0	0	0	0	0	0	0	0	0.0000	0.0000	0.0000	0.0000;
	55	0	0	23	-8	0.952	100	0	100	25	0	0	0	0	0	0	0	0	0	0	0	0.0000	0.0000	0.0000	0.0000;
	56	0	0	15	-8	0.954	100	0	100	25	0	0	0	0	0	0	0	0	0	0	0	0.0000	0.0000	0.0000	0.0000;
	59	82.51	-1.246	180	-60	0.985	255	1	255	50	0	0	0	0	0	0	0	0	0	0	0	0.0000	0.0000	0.0000	0.0000;
	61	85.17	-55.413	300	-100	0.995	260	1	260	50	0	0	0	0	0	0	0	0	0	0	0	0.0000	0.0000	0.0000	0.0000;
	62	0	0	20	-20	0.998	100	0	100	25	0	0	0	0	0	0	0	0	0	0	0	0.0000	0.0000	0.0000	0.0000;
	65	208.13	48.263	200	-67	1.005	500	1	491	100	0	0	0	0	0	0	0	0	0	0	0	0.0000	0.0000	0.0000	0.0000;
	66	208.66	6.016	200	-67	1.05	500	1	492	100	0	0	0	0	0	0	0	0	0	0	0	0.0000	0.0000	0.0000	0.0000;
	69	315.182	-154.187	300	-300	1.035	810	1	805.2	80	0	0	0	0	0	0	0	0	0	0	0	0.0000	0.0000	0.0000	0.0000;
	70	0	0	32	-10	0.984	100	0	100	30	0	0	0	0	0	0	0	0	0	0	0	0.0000	0.0000	0.0000	0.0000;
	72	0	0	100	-100	0.98	100	0	100	10	0	0	0	0	0	0	0	0	0	0	0	0.0000	0.0000	0.0000	0.0000;
	73	0	0	100	-100	0.991	100	0	100	5	0	0	0	0	0	0	0	0	0	0	0	0.0000	0.0000	0.0000	0.0000;
	74	0	0	9	-6	0.958	100	0	100	5	0	0	0	0	0	0	0	0	0	0	0	0.0000	0.0000	0.0000	0.0000;
	76	0	0	23	-8	0.943	100	0	100	25	0	0	0	0	0	0	0	0	0	0	0	0.0000	0.0000	0.0000	0.0000;
	77	0	0	70	-20	1.006	100	0	100	25	0	0	0	0	0	0	0	0	0	0	0	0.0000	0.0000	0.0000	0.0000;
	80	253.91	-17.702	280	-165	1.04	600	1	577	150	0	0	0	0	0	0	0	0	0	0	0	0.0000	0.0000	0.0000	0.0000;
	99	0	0	100	-100	1.01	100	0	100	100	0	0	0	0	0	0	0	0	0	0	0	0.0000	0.0000	0.0000	0.0000;
	100	134.14	7.5	155	-50	1.017	352	1	352	100	0	0	0	0	0	0	0	0	0	0	0	0.0000	0.0000	0.0000	0.0000;
	103	21.29	7.384	40	-15	1.01	140	1	140	8	0	0	0	0	0	0	0	0	0	0	0	0.0000	0.0000	0.0000	0.0000;
	104	0	0	23	-8	0.971	100	0	100	25	0	0	0	0	0	0	0	0	0	0	0	0.0000	0.0000	0.0000	0.0000;
	105	0	0	23	-8	0.965	100	0	100	25	0	0	0	0	0	0	0	0	0	0	0	0.0000	0.0000	0.0000	0.0000;
	107	0	0	200	-200	0.952	100	0	100	8	0	0	0	0	0	0	0	0	0	0	0	0.0000	0.0000	0.0000	0.0000;
	110	0	0	23	-8	0.973	100	0	100	25	0	0	0	0	0	0	0	0	0	0	0	0.0000	0.0000	0.0000	0.0000;
	111	25	-13.411	1000	-100	0.98	136	1	136	25	0	0	0	0	0	0	0	0	0	0	0	0.0000	0.0000	0.0000	0.0000;
	112	0	0	1000	-100	0.975	100	0	100	25	0	0	0	0	0	0	0	0	0	0	0	0.0000	0.0000	0.0000	0.0000;
	113	0	0	200	-100	0.993	100	0	100	25	0	0	0	0	0	0	0	0	0	0	0	0.0000	0.0000	0.0000	0.0000;
	116	0	0	1000	-1000	1.005	100	0	100	25	0	0	0	0	0	0	0	0	0	0	0	0.0000	0.0000	0.0000	0.0000;
];

%% branch data
%	fbus	tbus	r	x	b	rateA	rateB	rateC	ratio	angle	status	angmin	angmax
mpc.branch = [
	1	2	0.0303	0.0999	0.0254	42.12	54.75	0	0	0	1	-360	360;
	1	3	0.0129	0.0424	0.01082	44.58	57.95	0	0	0	1	-360	360;
	2	12	0.0187	0.0616	0.01572	56.91	73.98	0	0	0	1	-360	360;
	3	5	0.0241	0.108	0.0284	73.46	95.5	0	0	0	1	-360	360;
	3	12	0.0484	0.16	0.0406	20	26	0	0	0	1	-360	360;
	4	5	0.00176	0.00798	0.0021	85.18	110.74	0	0	0	1	-360	360;
	4	11	0.0209	0.0688	0.01748	59.77	77.7	0	0	0	1	-360	360;
	5	6	0.0119	0.054	0.01426	87.16	113.31	0	0	0	1	-360	360;
	5	11	0.0203	0.0682	0.01738	85.47	111.11	0	0	0	1	-360	360;
	6	7	0.00459	0.0208	0.0055	47.74	62.07	0	0	0	1	-360	360;
	7	12	0.00862	0.034	0.00874	40.67	52.87	0	0	0	1	-360	360;
	8	9	0.00244	0.0305	0.8	491.64	639.13	0	0	0	1	-360	360;
	8	30	0.00431	0.0504	0.514	348.89	453.56	0	0	0	1	-360	360;
	9	10	0.00258	0.0322	0.8	437.92	569.3	0	0	0	1	-360	360;
	11	12	0.00595	0.0196	0.00502	63.2	82.16	0	0	0	1	-360	360;
	11	13	0.02225	0.0731	0.01876	57.93	75.32	0	0	0	1	-360	360;
	12	14	0.0215	0.0707	0.01816	70	91	0	0	0	1	-360	360;
	12	16	0.0212	0.0834	0.0214	94.77	123.21	0	0	0	1	-360	360;
	12	117	0.0329	0.14	0.0358	20	26	0	0	0	1	-360	360;
	13	15	0.0744	0.2444	0.06268	87.45	113.68	0	0	0	1	-360	360;
	14	15	0.0595	0.195	0.0502	109.68	142.58	0	0	0	1	-360	360;
	15	17	0.0132	0.0437	0.0444	186.49	242.44	0	0	0	1	-360	360;
	15	19	0.012	0.0394	0.0101	45.77	59.5	0	0	0	1	-360	360;
	15	33	0.038	0.1244	0.03194	52.75	68.57	0	0	0	1	-360	360;
	16	17	0.0454	0.1801	0.0466	151.26	196.64	0	0	0	1	-360	360;
	17	18	0.0123	0.0505	0.01298	78.93	102.61	0	0	0	1	-360	360;
	17	31	0.0474	0.1563	0.0399	50.59	65.77	0	0	0	1	-360	360;
	17	113	0.00913	0.0301	0.00768	50.92	66.2	0	0	0	1	-360	360;
	18	19	0.01119	0.0493	0.01142	49.58	64.45	0	0	0	1	-360	360;
	19	20	0.0252	0.117	0.0298	39.16	50.91	0	0	0	1	-360	360;
	19	34	0.0752	0.247	0.0632	53.66	69.76	0	0	0	1	-360	360;
	20	21	0.0183	0.0849	0.0216	51.78	67.32	0	0	0	1	-360	360;
	21	22	0.0209	0.097	0.0246	35.36	45.96	0	0	0	1	-360	360;
	22	23	0.0342	0.159	0.0404	40.43	52.56	0	0	0	1	-360	360;
	23	24	0.0135	0.0492	0.0498	71.13	92.47	0	0	0	1	-360	360;
	23	25	0.0156	0.08	0.0864	181.29	235.68	0	0	0	1	-360	360;
	23	32	0.0317	0.1153	0.1173	79.25	103.02	0	0	0	1	-360	360;
	24	70	0.00221	0.4115	0.10198	43.5	56.54	0	0	0	1	-360	360;
	24	72	0.0488	0.196	0.0488	29.62	38.5	0	0	0	1	-360	360;
	25	27	0.0318	0.163	0.1764	109.99	142.99	0	0	0	1	-360	360;
	26	30	0.00799	0.086	0.908	239.27	311.05	0	0	0	1	-360	360;
	27	28	0.01913	0.0855	0.0216	29.21	37.97	0	0	0	1	-360	360;
	27	32	0.0229	0.0755	0.01926	38.42	49.95	0	0	0	1	-360	360;
	27	115	0.0164	0.0741	0.01972	21.37	27.78	0	0	0	1	-360	360;
	28	29	0.0237	0.0943	0.0238	20	26	0	0	0	1	-360	360;
	29	31	0.0108	0.0331	0.0083	20	26	0	0	0	1	-360	360;
	30	38	0.00464	0.054	0.422	113.16	147.11	0	0	0	1	-360	360;
	31	32	0.0298	0.0985	0.0251	29.87	38.83	0	0	0	1	-360	360;
	32	113	0.0615	0.203	0.0518	54.43	70.76	0	0	0	1	-360	360;
	32	114	0.0135	0.0612	0.01628	20	26	0	0	0	1	-360	360;
	33	37	0.0415	0.142	0.0366	50.16	65.21	0	0	0	1	-360	360;
	34	36	0.00871	0.0268	0.00568	27.41	35.63	0	0	0	1	-360	360;
	34	37	0.00256	0.0094	0.00984	86.82	112.86	0	0	0	1	-360	360;
	34	43	0.0413	0.1681	0.04226	20	26	0	0	0	1	-360	360;
	35	36	0.00224	0.0102	0.00268	46.08	59.9	0	0	0	1	-360	360;
	35	37	0.011	0.0497	0.01318	71.71	93.22	0	0	0	1	-360	360;
	37	39	0.0321	0.106	0.027	58.35	75.85	0	0	0	1	-360	360;
	37	40	0.0593	0.168	0.042	40.95	53.23	0	0	0	1	-360	360;
	38	65	0.00901	0.0986	1.046	176.82	229.87	0	0	0	1	-360	360;
	39	40	0.0184	0.0605	0.01552	26.56	34.53	0	0	0	1	-360	360;
	40	41	0.0145	0.0487	0.01222	21.65	28.15	0	0	0	1	-360	360;
	40	42	0.0555	0.183	0.0466	20	26	0	0	0	1	-360	360;
	41	42	0.041	0.135	0.0344	32.77	42.6	0	0	0	1	-360	360;
	42	49	0.0715	0.323	0.086	56.37	73.28	0	0	0	1	-360	360;
	42	49	0.0715	0.323	0.086	59.29	77.08	0	0	0	1	-360	360;
	43	44	0.0608	0.2454	0.06068	36.53	47.48	0	0	0	1	-360	360;
	44	45	0.0224	0.0901	0.0224	36.62	47.61	0	0	0	1	-360	360;
	45	46	0.04	0.1356	0.0332	39.3	51.08	0	0	0	1	-360	360;
	45	49	0.0684	0.186	0.0444	47.37	61.58	0	0	0	1	-360	360;
	46	47	0.038	0.127	0.0316	33.13	43.06	0	0	0	1	-360	360;
	46	48	0.0601	0.189	0.0472	25.24	32.81	0	0	0	1	-360	360;
	47	49	0.0191	0.0625	0.01604	73.63	95.72	0	0	0	1	-360	360;
	47	69	0.0844	0.2778	0.07092	38.01	49.41	0	0	0	1	-360	360;
	48	49	0.0179	0.0505	0.01258	45.54	59.2	0	0	0	1	-360	360;
	49	50	0.0267	0.0752	0.01874	55.35	71.95	0	0	0	1	-360	360;
	49	51	0.0486	0.137	0.0342	59.67	77.58	0	0	0	1	-360	360;
	49	54	0.0869	0.291	0.073	41.96	54.55	0	0	0	1	-360	360;
	49	54	0.073	0.289	0.0738	43.48	56.52	0	0	0	1	-360	360;
	49	66	0.018	0.0919	0.0248	109.41	142.23	0	0	0	1	-360	360;
	49	66	0.018	0.0919	0.0248	105.09	136.62	0	0	0	1	-360	360;
	49	69	0.0985	0.324	0.0828	57.51	74.76	0	0	0	1	-360	360;
	50	57	0.0474	0.134	0.0332	43.54	56.6	0	0	0	1	-360	360;
	51	52	0.0203	0.0588	0.01396	25.96	33.75	0	0	0	1	-360	360;
	51	58	0.0255	0.0719	0.01788	26.44	34.37	0	0	0	1	-360	360;
	52	53	0.0405	0.1635	0.04058	20.17	26.22	0	0	0	1	-360	360;
	53	54	0.0263	0.122	0.031	20	26	0	0	0	1	-360	360;
	54	55	0.0169	0.0707	0.0202	33.52	43.58	0	0	0	1	-360	360;
	54	56	0.00275	0.00955	0.00732	85.24	110.81	0	0	0	1	-360	360;
	54	59	0.0503	0.2293	0.0598	27.33	35.53	0	0	0	1	-360	360;
	55	56	0.00488	0.0151	0.00374	21.62	28.11	0	0	0	1	-360	360;
	55	59	0.04739	0.2158	0.05646	26.16	34.01	0	0	0	1	-360	360;
	56	57	0.0343	0.0966	0.0242	30.47	39.61	0	0	0	1	-360	360;
	56	58	0.0343	0.0966	0.0242	24.12	31.36	0	0	0	1	-360	360;
	56	59	0.0803	0.239	0.0536	26.94	35.02	0	0	0	1	-360	360;
	56	59	0.0825	0.251	0.0569	27.13	35.27	0	0	0	1	-360	360;
	59	60	0.0317	0.145	0.0376	27.45	35.68	0	0	0	1	-360	360;
	59	61	0.0328	0.15	0.0388	37.41	48.63	0	0	0	1	-360	360;
	60	61	0.00264	0.0135	0.01456	87.16	113.3	0	0	0	1	-360	360;
	60	62	0.0123	0.0561	0.01468	43.33	56.33	0	0	0	1	-360	360;
	61	62	0.00824	0.0376	0.0098	42.2	54.86	0	0	0	1	-360	360;
	62	66	0.0482	0.218	0.0578	43.18	56.13	0	0	0	1	-360	360;
	62	67	0.0258	0.117	0.031	42.72	55.54	0	0	0	1	-360	360;
	63	64	0.00172	0.02	0.216	148.09	192.52	0	0	0	1	-360	360;
	64	65	0.00269	0.0302	0.38	158.29	205.78	0	0	0	1	-360	360;
	65	68	0.00138	0.016	0.638	211.63	275.12	0	0	0	1	-360	360;
	66	67	0.0224	0.1015	0.02682	57.4	74.62	0	0	0	1	-360	360;
	68	81	0.00175	0.0202	0.808	192.23	249.9	0	0	0	1	-360	360;
	69	70	0.03	0.127	0.122	104.08	135.31	0	0	0	1	-360	360;
	69	75	0.0405	0.122	0.124	127.11	165.24	0	0	0	1	-360	360;
	69	77	0.0309	0.101	0.1038	178.85	232.5	0	0	0	1	-360	360;
	70	71	0.00882	0.0355	0.00878	50.81	66.05	0	0	0	1	-360	360;
	70	74	0.0401	0.1323	0.03368	27.13	35.27	0	0	0	1	-360	360;
	70	75	0.0428	0.141	0.036	35.41	46.03	0	0	0	1	-360	360;
	71	72	0.0446	0.18	0.04444	48.18	62.64	0	0	0	1	-360	360;
	71	73	0.00866	0.0454	0.01178	20	26	0	0	0	1	-360	360;
	74	75	0.0123	0.0406	0.01034	31.07	40.39	0	0	0	1	-360	360;
	75	77	0.0601	0.1999	0.04978	43.29	56.28	0	0	0	1	-360	360;
	75	118	0.0145	0.0481	0.01198	72.85	94.7	0	0	0	1	-360	360;
	76	77	0.0444	0.148	0.0368	79.28	103.06	0	0	0	1	-360	360;
	76	118	0.0164	0.0544	0.01356	34.39	44.7	0	0	0	1	-360	360;
	77	78	0.00376	0.0124	0.01264	65.32	84.92	0	0	0	1	-360	360;
	77	80	0.0294	0.105	0.0228	40.12	52.15	0	0	0	1	-360	360;
	77	80	0.017	0.0485	0.0472	64.37	83.68	0	0	0	1	-360	360;
	77	82	0.0298	0.0853	0.08174	174.49	226.83	0	0	0	1	-360	360;
	78	79	0.00546	0.0244	0.00648	33.54	43.6	0	0	0	1	-360	360;
	79	80	0.0156	0.0704	0.0187	56.78	73.82	0	0	0	1	-360	360;
	80	96	0.0356	0.182	0.0494	82.63	107.41	0	0	0	1	-360	360;
	80	97	0.0183	0.0934	0.0254	97.11	126.25	0	0	0	1	-360	360;
	80	98	0.0238	0.108	0.0286	81.5	105.95	0	0	0	1	-360	360;
	80	99	0.0454	0.206	0.0546	86.87	112.94	0	0	0	1	-360	360;
	82	83	0.0112	0.03665	0.03796	121.33	157.73	0	0	0	1	-360	360;
	82	96	0.0162	0.053	0.0544	91.15	118.5	0	0	0	1	-360	360;
	83	84	0.0625	0.132	0.0258	41.6	54.09	0	0	0	1	-360	360;
	83	85	0.043	0.148	0.0348	56.05	72.87	0	0	0	1	-360	360;
	84	85	0.0302	0.0641	0.01234	32.88	42.75	0	0	0	1	-360	360;
	85	86	0.035	0.123	0.0276	20	26	0	0	0	1	-360	360;
	85	88	0.02	0.102	0.0276	40.87	53.14	0	0	0	1	-360	360;
	85	89	0.0239	0.173	0.047	22.35	29.06	0	0	0	1	-360	360;
	88	89	0.0139	0.0712	0.01934	44.44	57.77	0	0	0	1	-360	360;
	89	90	0.0238	0.0997	0.106	59.04	76.75	0	0	0	1	-360	360;
	89	90	0.0518	0.188	0.0528	37.83	49.17	0	0	0	1	-360	360;
	89	92	0.0393	0.1581	0.0414	38.83	50.47	0	0	0	1	-360	360;
	89	92	0.0099	0.0505	0.0548	113.03	146.94	0	0	0	1	-360	360;
	90	91	0.0254	0.0836	0.0214	38.55	50.11	0	0	0	1	-360	360;
	91	92	0.0387	0.1272	0.03268	45.36	58.97	0	0	0	1	-360	360;
	92	93	0.0258	0.0848	0.0218	46.42	60.34	0	0	0	1	-360	360;
	92	94	0.0481	0.158	0.0406	53.4	69.41	0	0	0	1	-360	360;
	92	100	0.0648	0.295	0.0472	36.52	47.48	0	0	0	1	-360	360;
	92	102	0.0123	0.0559	0.01464	26.51	34.47	0	0	0	1	-360	360;
	93	94	0.0223	0.0732	0.01876	57.95	75.34	0	0	0	1	-360	360;
	94	95	0.0132	0.0434	0.0111	38.84	50.49	0	0	0	1	-360	360;
	94	96	0.0269	0.0869	0.023	55.1	71.63	0	0	0	1	-360	360;
	94	100	0.0178	0.058	0.0604	54.54	70.91	0	0	0	1	-360	360;
	95	96	0.0171	0.0547	0.01474	80.71	104.93	0	0	0	1	-360	360;
	96	97	0.0173	0.0885	0.024	86.22	112.09	0	0	0	1	-360	360;
	98	100	0.0397	0.179	0.0476	58.85	76.5	0	0	0	1	-360	360;
	99	100	0.018	0.0813	0.0216	79.55	103.41	0	0	0	1	-360	360;
	100	101	0.0277	0.1262	0.0328	58.52	76.07	0	0	0	1	-360	360;
	100	103	0.016	0.0525	0.0536	78.19	101.65	0	0	0	1	-360	360;
	100	104	0.0451	0.204	0.0541	60.25	78.33	0	0	0	1	-360	360;
	100	106	0.0605	0.229	0.062	49.67	64.57	0	0	0	1	-360	360;
	101	102	0.0246	0.112	0.0294	32.41	42.13	0	0	0	1	-360	360;
	103	104	0.0466	0.1584	0.0407	24.64	32.03	0	0	0	1	-360	360;
	103	105	0.0535	0.1625	0.0408	33.59	43.67	0	0	0	1	-360	360;
	103	110	0.03906	0.1813	0.0461	38.43	49.97	0	0	0	1	-360	360;
	104	105	0.00994	0.0378	0.00986	34.43	44.76	0	0	0	1	-360	360;
	105	106	0.014	0.0547	0.01434	35.45	46.09	0	0	0	1	-360	360;
	105	107	0.053	0.183	0.0472	26.4	34.31	0	0	0	1	-360	360;
	105	108	0.0261	0.0703	0.01844	38.69	50.3	0	0	0	1	-360	360;
	106	107	0.053	0.183	0.0472	20	26	0	0	0	1	-360	360;
	108	109	0.0105	0.0288	0.0076	39.78	51.71	0	0	0	1	-360	360;
	109	110	0.0278	0.0762	0.0202	20	26	0	0	0	1	-360	360;
	110	111	0.022	0.0755	0.02	54.2	70.46	0	0	0	1	-360	360;
	110	112	0.0247	0.064	0.062	48.98	63.67	0	0	0	1	-360	360;
	114	115	0.0023	0.0104	0.00276	20	26	0	0	0	1	-360	360;
	8	5	0	0.0267	0	313.4	407.41	0	0.985	0	1	-360	360;
	30	17	0	0.0388	0	239.38	311.19	0	0.96	0	1	-360	360;
	26	25	0	0.0382	0	236.91	307.98	0	0.96	0	1	-360	360;
	38	37	0	0.0375	0	263.17	342.12	0	0.935	0	1	-360	360;
	63	59	0	0.0386	0	154.22	200.49	0	0.96	0	1	-360	360;
	64	61	0	0.0268	0	85.01	110.52	0	0.985	0	1	-360	360;
	65	66	0	0.037	0	130.22	169.28	0	0.935	0	1	-360	360;
	68	69	0	0.037	0	219.09	284.81	0	0.935	0	1	-360	360;
	68	116	0.00034	0.00405	0	138.97	180.66	0	1	0	1	-360	360;
	81	80	0	0.037	0	216.9	281.98	0	0.935	0	1	-360	360;
	86	87	0.02828	0.2074	0	20	26	0	1	0	1	-360	360;
];
